* PSpice Model Editor - Version 22.1.0

*$
*BeginSpec
*IF: (1.2000,0) (1.4000,0) (1.6000,200.00E-6) (1.8000,6.5000E-3) (2,22.500E-3) (2.2000,35.000E-3) (2.4000,56.000E-3)
*JC:
*RL:
*RB: Vz=0 Iz=0 Zz=0
*RR: Trr=0 Ifwd=10.000E-3 Irev=10.000E-3 Rl=100
*EndSpec

*BeginTrace
*IF: 1,0,.4,2.4000,1,3,0,0,-1 (27)
*JC: 0,1,.1,10,1,3,0,0,-1 (27)
*RL: 0,0,1,100,1,3,0,0,-1 (27)
*RB: 0,1,100.00E-6,1,1,3,0,0,-1 (27)
*RR: 0,0,-5.0000E-9,20.000E-9,1,3,0,0,-1 (27)
*EndTrace

*BeginParam
*IS=10.013E-21 (10.000E-21,.1,0)
*N=1.6367 (.2,5,0)
*RS=9.5575 (1.0000E-6,100,0)
*IKF=22.427E-3 (0,1.0000E3,0)
*XTI=3 (-100,100,0)
*EG=1.1100 (.1,5.5100,0)
*CJO=1.0000E-12 (10.000E-21,1.0000E-3,0)
*M=.3333 (.1,10,0)
*VJ=.75 (.3905,10,0)
*FC=.5 (1.0000E-3,10,0)
*ISR=100.00E-12 (10.000E-21,.1,0)
*NR=2 (.5,5,0)
*BV=100 (.1,1.0000E6,0)
*IBV=100.00E-6 (1.0000E-9,10,0)
*TT=5.0000E-9 (100.00E-18,1.0000E-3,0)
*EndParam

*DEVICE=Dportocala,D

* Dportocala D model
* created using Model Editor release 22.1.0 on 05/17/23 at 14:47
* The Model Editor is a PSpice product.
.MODEL Dportocala D
+ IS=10.013E-21
+ N=1.6367
+ RS=9.5575

*$
